/*--------------------------------*- C++ -*----------------------------------*\
| =========                 |                                                 |
| \\      /  F ield         | OpenFOAM: The Open Source CFD Toolbox           |
|  \\    /   O peration     | Version:  1.5                                   |
|   \\  /    A nd           | Web:      http://www.OpenFOAM.org               |
|    \\/     M anipulation  |                                                 |
\*---------------------------------------------------------------------------*/
FoamFile
{
    version     2.0;
    format      ascii;
    class       dictionary;
    object      environmentalProperties;
}
// * * * * * * * * * * * * * * * * * * * * * * * * * * * * * * * * * * * * * //

seaLevel	0.00;

// A list of the relaxation zones in the simulation. The parameters are given
// in <name>Coeffs below.
relaxationNames ();

initializationName inlet;

inletCoeffs
{
        waveType	streamFunction;
	Tsoft 0;
    N		32;
    depth	0.400000;
    omega	3.141593;
    phi		0.000000;
    waveNumber	 (1.658977 0.0 0.0);
    uBar	1.91744;
    A		nonuniform List<scalar>	32
    (
        0.0569921
        0.0177233
        0.00498286
        0.00146619
        0.000462558
        0.000154781
        5.40911e-05
        1.95117e-05
        7.20848e-06
        2.71345e-06
        1.03696e-06
        4.01248e-07
        1.56896e-07
        6.18987e-08
        2.46087e-08
        9.84919e-09
        3.96521e-09
        1.6047e-09
        6.52433e-10
        2.66372e-10
        1.09163e-10
        4.48899e-11
        1.85165e-11
        7.65963e-12
        3.17658e-12
        1.32051e-12
        5.50243e-13
        2.30351e-13
        9.68497e-14
        4.17034e-14
        1.96516e-14
        7.03111e-15
    );
    B		nonuniform List<scalar>	32
    (
        0.294319
        0.0906356
        0.018986
        0.00246699
        2.50031e-05
        -7.61927e-05
        -1.81364e-05
        -9.45787e-07
        6.46195e-07
        2.26562e-07
        3.13281e-08
        -2.35659e-09
        -2.15343e-09
        -4.63731e-10
        -1.70238e-11
        1.92801e-11
        6.28048e-12
        7.48046e-13
        -1.10147e-13
        -7.69504e-14
        -1.12905e-14
        7.93842e-15
        -6.17001e-15
        -1.12538e-14
        3.3193e-14
        -3.38675e-14
        7.64882e-15
        1.21274e-14
        -8.50603e-15
        3.51825e-15
        -1.14029e-14
        8.36705e-15
    );


}
initCoeffs
{
    waveType            potentialCurrent;
    U                   ( 0 0 0 );
    Tsoft               2;
    N		32;
    depth	0.400000;
    omega	3.141593;
    phi		0.000000;
    waveNumber	 (1.658977 0.0 0.0);
    uBar	1.91744;
    A		nonuniform List<scalar>	32
    (
        0.0569921
        0.0177233
        0.00498286
        0.00146619
        0.000462558
        0.000154781
        5.40911e-05
        1.95117e-05
        7.20848e-06
        2.71345e-06
        1.03696e-06
        4.01248e-07
        1.56896e-07
        6.18987e-08
        2.46087e-08
        9.84919e-09
        3.96521e-09
        1.6047e-09
        6.52433e-10
        2.66372e-10
        1.09163e-10
        4.48899e-11
        1.85165e-11
        7.65963e-12
        3.17658e-12
        1.32051e-12
        5.50243e-13
        2.30351e-13
        9.68497e-14
        4.17034e-14
        1.96516e-14
        7.03111e-15
    );
    B		nonuniform List<scalar>	32
    (
        0.294319
        0.0906356
        0.018986
        0.00246699
        2.50031e-05
        -7.61927e-05
        -1.81364e-05
        -9.45787e-07
        6.46195e-07
        2.26562e-07
        3.13281e-08
        -2.35659e-09
        -2.15343e-09
        -4.63731e-10
        -1.70238e-11
        1.92801e-11
        6.28048e-12
        7.48046e-13
        -1.10147e-13
        -7.69504e-14
        -1.12905e-14
        7.93842e-15
        -6.17001e-15
        -1.12538e-14
        3.3193e-14
        -3.38675e-14
        7.64882e-15
        1.21274e-14
        -8.50603e-15
        3.51825e-15
        -1.14029e-14
        8.36705e-15
    );

    // Specifications on the relaxation zone shape and relaxation scheme
  
}
initCoeffs
{
    waveType            potentialCurrent;
    U                   ( 0 0 0 );
    Tsoft               2;
}
// ************************************************************************* //
